Version 4.1
SHEET 1 1416 1140
WIRE 128 -400 -32 -400
WIRE 160 -400 128 -400
WIRE 416 -400 224 -400
WIRE -32 -368 -32 -400
WIRE -320 -352 -384 -352
WIRE -128 -352 -240 -352
WIRE 416 -352 416 -400
WIRE 528 -352 416 -352
WIRE 672 -352 528 -352
WIRE 528 -320 528 -352
WIRE -384 -304 -384 -352
WIRE 160 -288 112 -288
WIRE 416 -288 416 -352
WIRE 416 -288 224 -288
WIRE -384 -256 -384 -304
WIRE -128 -256 -128 -352
WIRE -32 -240 -32 -288
WIRE 48 -240 -32 -240
WIRE 528 -224 528 -256
WIRE 528 -224 448 -224
WIRE 48 -208 48 -240
WIRE -32 -192 -32 -240
WIRE 448 -192 448 -224
WIRE 528 -160 528 -224
WIRE 128 -128 128 -400
WIRE 160 -128 128 -128
WIRE 416 -128 224 -128
WIRE -384 -112 -384 -176
WIRE -128 -112 -128 -176
WIRE -128 -112 -384 -112
WIRE -384 -64 -384 -112
WIRE 416 -64 416 -128
WIRE 528 -64 528 -96
WIRE 528 -64 416 -64
WIRE 672 -64 528 -64
WIRE -32 -32 -32 -112
WIRE 112 -32 112 -288
WIRE 112 -32 -32 -32
WIRE 160 -32 112 -32
WIRE 416 -32 416 -64
WIRE 416 -32 224 -32
FLAG -384 -64 0
FLAG 48 -208 0
FLAG 448 -192 0
FLAG 672 -64 Vee
FLAG 672 -352 Vcc
FLAG -384 -304 zas
SYMBOL voltage -384 -272 R0
SYMATTR InstName V1
SYMATTR Value SINE(0 325 50)
SYMBOL res -224 -368 R90
WINDOW 0 0 56 VBottom 2
WINDOW 3 32 56 VTop 2
SYMATTR InstName R1
SYMATTR Value 1m
SYMBOL ind -144 -272 R0
SYMATTR InstName L1
SYMATTR Value 40
SYMATTR Type ind
SYMBOL ind -48 -384 R0
SYMATTR InstName L2
SYMATTR Value 0.3
SYMATTR Type ind
SYMBOL ind -48 -208 R0
SYMATTR InstName L3
SYMATTR Value 0.3
SYMATTR Type ind
SYMBOL diode 160 -384 R270
WINDOW 0 32 32 VTop 2
WINDOW 3 0 32 VBottom 2
SYMATTR InstName D1
SYMBOL diode 160 -272 R270
WINDOW 0 32 32 VTop 2
WINDOW 3 0 32 VBottom 2
SYMATTR InstName D2
SYMBOL diode 224 -144 R90
WINDOW 0 0 32 VBottom 2
WINDOW 3 32 32 VTop 2
SYMATTR InstName D3
SYMBOL diode 224 -48 R90
WINDOW 0 0 32 VBottom 2
WINDOW 3 32 32 VTop 2
SYMATTR InstName D4
SYMBOL cap 512 -320 R0
SYMATTR InstName C1
SYMATTR Value 3500u
SYMBOL cap 512 -160 R0
SYMATTR InstName C2
SYMATTR Value 3500u
TEXT -400 -16 Left 2 !.tran 0 2500m 2460m 10u
TEXT -400 16 Left 2 !K1 L1 L2 L3 1
